Conversion/Nando_final/dss_files/net_1_Rural_SMR8/04_MV_Lines.dss
New Line.mv_f0_l0 bus1=mv_f0_n1070.1.2.3 bus2=mv_f0_n1092.1.2.3 phases=3 length=0.140885 units=km linecode=lc_168-3ph enabled=true
New Line.mv_f0_l2 bus1=mv_f0_n3775.1.2.3 bus2=mv_f0_n3759.1.2.3 phases=3 length=0.174407 units=km linecode=lc_46-3ph enabled=true
New Line.mv_f0_l3 bus1=mv_f0_n1667.1.2.3 bus2=mv_f0_n459.1.2.3 phases=3 length=0.176231 units=km linecode=lc_183-3ph enabled=true
New Line.mv_f0_l5 bus1=mv_f0_n1547.1 bus2=mv_f0_n2734.1 phases=1 length=0.30621 units=km linecode=lc_46-1ph enabled=true
New Line.mv_f0_l6 bus1=mv_f0_n3759.1.2.3 bus2=mv_f0_n2538.1.2.3 phases=3 length=0.331311 units=km linecode=lc_46-3ph enabled=true
New Line.mv_f0_l7 bus1=mv_f0_n2974.1.2.3 bus2=mv_f0_n3001.1.2.3 phases=3 length=0.129989 units=km linecode=lc_168-3ph enabled=true
New Line.mv_f0_l8 bus1=mv_f0_n1844.1 bus2=mv_f0_n3396.1 phases=1 length=0.259074 units=km linecode=lc_168-1ph enabled=true
New Line.mv_f0_l9 bus1=mv_f0_n1715.1.2.3 bus2=mv_f0_n3387.1.2.3 phases=3 length=0.165187 units=km linecode=lc_183-3ph enabled=true
New Line.mv_f0_l10 bus1=mv_f0_n620.1.2.3 bus2=mv_f0_n1205.1.2.3 phases=3 length=0.079028 units=km linecode=lc_186-3ph enabled=true
New Line.mv_f0_l11 bus1=mv_f0_n3387.1.2.3 bus2=mv_f0_n2360.1.2.3 phases=3 length=0.168394 units=km linecode=lc_183-3ph enabled=true
New Line.mv_f0_l12 bus1=mv_f0_n1105.1.2.3 bus2=mv_f0_n1081.1.2.3 phases=3 length=0.159155 units=km linecode=lc_168-3ph enabled=true
New Line.mv_f0_l13 bus1=mv_f0_n4079.1.2.3 bus2=mv_f0_n748.1.2.3 phases=3 length=0.04681 units=km linecode=lc_46-3ph enabled=true
New Line.mv_f0_l14 bus1=mv_f0_n475.1.2.3 bus2=mv_f0_n449.1.2.3 phases=3 length=0.14979 units=km linecode=lc_183-3ph enabled=true
New Line.mv_f0_l15 bus1=mv_f0_n2350.1 bus2=mv_f0_n2313.1 phases=1 length=0.270234 units=km linecode=lc_183-1ph enabled=true
New Line.mv_f0_l16 bus1=mv_f0_n1360.1.2.3 bus2=mv_f0_n148.1.2.3 phases=3 length=0.309591 units=km linecode=lc_46-3ph enabled=true
New Line.mv_f0_l17 bus1=mv_f0_n2718.1 bus2=mv_f0_n1562.1 phases=1 length=0.344391 units=km linecode=lc_46-1ph enabled=true
New Line.mv_f0_l18 bus1=mv_f0_n459.1.2.3 bus2=mv_f0_n475.1.2.3 phases=3 length=0.143394 units=km linecode=lc_183-3ph enabled=true
New Line.mv_f0_l19 bus1=mv_f0_n3325.1.2.3 bus2=mv_f0_n2741.1.2.3 phases=3 length=0.150076 units=km linecode=lc_46-3ph enabled=true
New Line.mv_f0_l20 bus1=mv_f0_n1832.1 bus2=mv_f0_n1857.1 phases=1 length=0.320076 units=km linecode=lc_46-1ph enabled=true
New Line.mv_f0_l21 bus1=mv_f0_n2782.1.2.3 bus2=mv_f0_n434.1.2.3 phases=3 length=0.2649 units=km linecode=lc_86-3ph enabled=true
New Line.mv_f0_l22 bus1=mv_f0_n3774.1.2.3 bus2=mv_f0_n61.1.2.3 phases=3 length=0.155472 units=km linecode=lc_93-3ph enabled=true
New Line.mv_f0_l23 bus1=mv_f0_n3001.1.2.3 bus2=mv_f0_n3011.1.2.3 phases=3 length=0.12149 units=km linecode=lc_168-3ph enabled=true
New Line.mv_f0_l25 bus1=mv_f0_n1185.1 bus2=mv_f0_n1270.1 phases=1 length=0.309285 units=km linecode=lc_46-1ph enabled=true
New Line.mv_f0_l26 bus1=mv_f0_n2271.1.2.3 bus2=mv_f0_n3442.1.2.3 phases=3 length=0.191341 units=km linecode=lc_46-3ph enabled=true
New Line.mv_f0_l27 bus1=mv_f0_n906.1.2.3 bus2=mv_f0_n4093.1.2.3 phases=3 length=0.134765 units=km linecode=lc_46-3ph enabled=true
New Line.mv_f0_l29 bus1=mv_f0_n2788.1 bus2=mv_f0_n2520.1 phases=1 length=0.323693 units=km linecode=lc_46-1ph enabled=true
New Line.mv_f0_l30 bus1=mv_f0_n1771.1.2.3 bus2=mv_f0_n1752.1.2.3 phases=3 length=0.233077 units=km linecode=lc_44-3ph enabled=true
New Line.mv_f0_l31 bus1=mv_f0_n840.1.2.3 bus2=mv_f0_n1372.1.2.3 phases=3 length=0.32719 units=km linecode=lc_46-3ph enabled=true
New Line.mv_f0_l32 bus1=mv_f0_n1092.1.2.3 bus2=mv_f0_n1116.1.2.3 phases=3 length=0.159989 units=km linecode=lc_168-3ph enabled=true
New Line.mv_f0_l33 bus1=mv_f0_n3485.1.2.3 bus2=mv_f0_n1771.1.2.3 phases=3 length=0.021407 units=km linecode=lc_44-3ph enabled=true
New Line.mv_f0_l35 bus1=mv_f0_n489.1.2.3 bus2=mv_f0_n457.1.2.3 phases=3 length=0.109873 units=km linecode=lc_216-3ph enabled=true
New Line.mv_f0_l36 bus1=mv_f0_n2175.1.2.3 bus2=mv_f0_n676.1.2.3 phases=3 length=0.123657 units=km linecode=lc_25-3ph enabled=true
New Line.mv_f0_l37 bus1=mv_f0_n1988.1.2.3 bus2=mv_f0_n601.1.2.3 phases=3 length=0.000663 units=km linecode=lc_216-3ph enabled=true
New Line.mv_f0_l38 bus1=mv_f0_n3104.1.2.3 bus2=mv_f0_n2612.1.2.3 phases=3 length=0.001 units=km linecode=lc_168-3ph enabled=true
New Line.mv_f0_l39 bus1=mv_f0_n2802.1 bus2=mv_f0_n2779.1 phases=1 length=0.178689 units=km linecode=lc_168-1ph enabled=true
New Line.mv_f0_l40 bus1=mv_f0_n2295.1.2.3 bus2=mv_f0_n2291.1.2.3 phases=3 length=0.16985 units=km linecode=lc_25-3ph enabled=true
New Line.mv_f0_l41 bus1=mv_f0_n3582.1 bus2=mv_f0_n2163.1 phases=1 length=0.552988 units=km linecode=lc_139-1ph enabled=true
New Line.mv_f0_l42 bus1=mv_f0_n432.1.2.3 bus2=mv_f0_n429.1.2.3 phases=3 length=0.001026 units=km linecode=lc_168-3ph enabled=true
New Line.mv_f0_l43 bus1=mv_f0_n2816.1 bus2=mv_f0_n2802.1 phases=1 length=0.10079 units=km linecode=lc_168-1ph enabled=true
New Line.mv_f0_l44 bus1=mv_f0_n4091.1 bus2=mv_f0_n4119.1 phases=1 length=0.0035 units=km linecode=lc_168-1ph enabled=true
New Line.mv_f0_l45 bus1=mv_f0_n4085.1.2.3 bus2=mv_f0_n3682.1.2.3 phases=3 length=0.14732 units=km linecode=lc_168-3ph enabled=true
New Line.mv_f0_l46 bus1=mv_f0_n1436.1.2.3 bus2=mv_f0_n1672.1.2.3 phases=3 length=0.26821 units=km linecode=lc_46-3ph enabled=true
New Line.mv_f0_l47 bus1=mv_f0_n981.1.2.3 bus2=mv_f0_n4131.1.2.3 phases=3 length=0.059314 units=km linecode=lc_44-3ph enabled=true
New Line.mv_f0_l48 bus1=mv_f0_n2329.1.2.3 bus2=mv_f0_n2323.1.2.3 phases=3 length=0.171027 units=km linecode=lc_25-3ph enabled=true
New Line.mv_f0_l49 bus1=mv_f0_n377.1.2.3 bus2=mv_f0_n2424.1.2.3 phases=3 length=0.138849 units=km linecode=lc_130-3ph enabled=true
New Line.mv_f0_l50 bus1=mv_f0_n4131.1.2.3 bus2=mv_f0_n640.1.2.3 phases=3 length=0.059335 units=km linecode=lc_44-3ph enabled=true
New Line.mv_f0_l51 bus1=mv_f0_n2222.1.2.3 bus2=mv_f0_n1448.1.2.3 phases=3 length=0.123575 units=km linecode=lc_84-3ph enabled=true
New Line.mv_f0_l52 bus1=mv_f0_n1115.1 bus2=mv_f0_n1585.1 phases=1 length=0.318487 units=km linecode=lc_84-1ph enabled=true
New Line.mv_f0_l54 bus1=mv_f0_n3382.1 bus2=mv_f0_n3866.1 phases=1 length=0.228945 units=km linecode=lc_168-1ph enabled=true
New Line.mv_f0_l55 bus1=mv_f0_n1423.1.2.3 bus2=mv_f0_n1737.1.2.3 phases=3 length=0.268208 units=km linecode=lc_46-3ph enabled=true
New Line.mv_f0_l56 bus1=mv_f0_n3861.1 bus2=mv_f0_n417.1 phases=1 length=0.284064 units=km linecode=lc_46-1ph enabled=true
New Line.mv_f0_l57 bus1=mv_f0_n3944.1 bus2=mv_f0_n3795.1 phases=1 length=0.001004 units=km linecode=lc_46-1ph enabled=true
New Line.mv_f0_l58 bus1=mv_f0_n4084.1 bus2=mv_f0_n1559.1 phases=1 length=0.243169 units=km linecode=lc_46-1ph enabled=true
New Line.mv_f0_l59 bus1=mv_f0_n1737.1.2.3 bus2=mv_f0_n1436.1.2.3 phases=3 length=0.268203 units=km linecode=lc_46-3ph enabled=true
New Line.mv_f0_l60 bus1=mv_f0_n1319.1.2.3 bus2=mv_f0_n1708.1.2.3 phases=3 length=0.143575 units=km linecode=lc_46-3ph enabled=true
New Line.mv_f0_l61 bus1=mv_f0_n71.1.2.3 bus2=mv_f0_n82.1.2.3 phases=3 length=0.240851 units=km linecode=lc_46-3ph enabled=true
New Line.mv_f0_l62 bus1=mv_f0_n2360.1.2.3 bus2=mv_f0_n2357.1.2.3 phases=3 length=0.164932 units=km linecode=lc_25-3ph enabled=true
New Line.mv_f0_l63 bus1=mv_f0_n3057.1.2.3 bus2=mv_f0_n3530.1.2.3 phases=3 length=0.350099 units=km linecode=lc_46-3ph enabled=true
New Line.mv_f0_l64 bus1=mv_f0_n1708.1.2.3 bus2=mv_f0_n1353.1.2.3 phases=3 length=0.121966 units=km linecode=lc_46-3ph enabled=true
New Line.mv_f0_l65 bus1=mv_f0_n3063.1.2.3 bus2=mv_f0_n71.1.2.3 phases=3 length=0.277166 units=km linecode=lc_46-3ph enabled=true
New Line.mv_f0_l66 bus1=mv_f0_n676.1.2.3 bus2=mv_f0_n699.1.2.3 phases=3 length=0.077146 units=km linecode=lc_25-3ph enabled=true
New Line.mv_f0_l67 bus1=mv_f0_n561.1.2.3 bus2=mv_f0_n3468.1.2.3 phases=3 length=0.23822 units=km linecode=lc_119-3ph enabled=true
New Line.mv_f0_l69 bus1=mv_f0_n3469.1 bus2=mv_f0_n3507.1 phases=1 length=0.320645 units=km linecode=lc_44-1ph enabled=true
New Line.mv_f0_l70 bus1=mv_f0_n871.1.2.3 bus2=mv_f0_n688.1.2.3 phases=3 length=0.311855 units=km linecode=lc_46-3ph enabled=true
New Line.mv_f0_l71 bus1=mv_f0_n1372.1.2.3 bus2=mv_f0_n1398.1.2.3 phases=3 length=0.319983 units=km linecode=lc_46-3ph enabled=true
New Line.mv_f0_l72 bus1=mv_f0_n1802.1.2.3 bus2=mv_f0_n3191.1.2.3 phases=3 length=0.123206 units=km linecode=lc_46-3ph enabled=true
New Line.mv_f0_l73 bus1=mv_f0_n3472.1 bus2=mv_f0_n3469.1 phases=1 length=0.304796 units=km linecode=lc_46-1ph enabled=true
New Line.mv_f0_l75 bus1=mv_f0_n3268.1 bus2=mv_f0_n2224.1 phases=1 length=0.1705 units=km linecode=lc_46-1ph enabled=true
New Line.mv_f0_l76 bus1=mv_f0_n1487.1.2.3 bus2=mv_f0_n3265.1.2.3 phases=3 length=0.056004 units=km linecode=lc_84-3ph enabled=true
New Line.mv_f0_l77 bus1=mv_f0_n338.1.2.3 bus2=mv_f0_n1802.1.2.3 phases=3 length=0.097563 units=km linecode=lc_46-3ph enabled=true
New Line.mv_f0_l78 bus1=mv_f0_n2923.1 bus2=mv_f0_n2905.1 phases=1 length=0.229331 units=km linecode=lc_46-1ph enabled=true
New Line.mv_f0_l79 bus1=mv_f0_n312.1 bus2=mv_f0_n3268.1 phases=1 length=0.273771 units=km linecode=lc_46-1ph enabled=true
New Line.mv_f0_l80 bus1=mv_f0_n3265.1.2.3 bus2=mv_f0_n1451.1.2.3 phases=3 length=0.08703 units=km linecode=lc_84-3ph enabled=true
New Line.mv_f0_l81 bus1=mv_f0_n1444.1.2.3 bus2=mv_f0_n373.1.2.3 phases=3 length=0.340183 units=km linecode=lc_46-3ph enabled=true
New Line.mv_f0_l82 bus1=mv_f0_n2862.1 bus2=mv_f0_n3532.1 phases=1 length=0.24382 units=km linecode=lc_46-1ph enabled=true
New Line.mv_f0_l83 bus1=mv_f0_n82.1.2.3 bus2=mv_f0_n2825.1.2.3 phases=3 length=0.297517 units=km linecode=lc_46-3ph enabled=true
New Line.mv_f0_l84 bus1=mv_f0_n699.1.2.3 bus2=mv_f0_n713.1.2.3 phases=3 length=0.088796 units=km linecode=lc_25-3ph enabled=true
New Line.mv_f0_l85 bus1=mv_f0_n3487.1 bus2=mv_f0_n3458.1 phases=1 length=0.150002 units=km linecode=lc_25-1ph enabled=true
New Line.mv_f0_l86 bus1=mv_f0_n2935.1 bus2=mv_f0_n2923.1 phases=1 length=0.243828 units=km linecode=lc_25-1ph enabled=true
New Line.mv_f0_l87 bus1=mv_f0_n3532.1 bus2=mv_f0_n2816.1 phases=1 length=0.310863 units=km linecode=lc_25-1ph enabled=true
New Line.mv_f0_l88 bus1=mv_f0_n3651.1.2.3 bus2=mv_f0_n3653.1.2.3 phases=3 length=0.35444 units=km linecode=lc_46-3ph enabled=true
New Line.mv_f0_l89 bus1=mv_f0_n3507.1 bus2=mv_f0_n3487.1 phases=1 length=0.199994 units=km linecode=lc_46-1ph enabled=true
New Line.mv_f0_l90 bus1=mv_f0_n3985.1.2.3 bus2=mv_f0_n2405.1.2.3 phases=3 length=0.178104 units=km linecode=lc_130-3ph enabled=true
New Line.mv_f0_l91 bus1=mv_f0_n2455.1.2.3 bus2=mv_f0_n2451.1.2.3 phases=3 length=0.124805 units=km linecode=lc_25-3ph enabled=true
New Line.mv_f0_l92 bus1=mv_f0_n3515.1 bus2=mv_f0_n2248.1 phases=1 length=0.371697 units=km linecode=lc_25-1ph enabled=true
New Line.mv_f0_l93 bus1=mv_f0_n2932.1.2.3 bus2=mv_f0_n3135.1.2.3 phases=3 length=0.078815 units=km linecode=lc_183-3ph enabled=true
New Line.mv_f0_l94 bus1=mv_f0_n2430.1.2.3 bus2=mv_f0_n214.1.2.3 phases=3 length=0.265196 units=km linecode=lc_46-3ph enabled=true
New Line.mv_f0_l95 bus1=mv_f0_n2424.1.2.3 bus2=mv_f0_n4002.1.2.3 phases=3 length=0.175572 units=km linecode=lc_130-3ph enabled=true
New Line.mv_f0_l96 bus1=mv_f0_n2222.1.2.3 bus2=mv_f0_n3281.1.2.3 phases=3 length=0.181979 units=km linecode=lc_84-3ph enabled=true
New Line.mv_f0_l97 bus1=mv_f0_n2490.1.2.3 bus2=mv_f0_n2492.1.2.3 phases=3 length=0.119422 units=km linecode=lc_25-3ph enabled=true
New Line.mv_f0_l98 bus1=mv_f0_n579.1.2.3 bus2=mv_f0_n589.1.2.3 phases=3 length=0.123708 units=km linecode=lc_84-3ph enabled=true
New Line.mv_f0_l99 bus1=mv_f0_n3281.1.2.3 bus2=mv_f0_n1487.1.2.3 phases=3 length=0.143742 units=km linecode=lc_84-3ph enabled=true
New Line.mv_f0_l100 bus1=mv_f0_n590.1.2.3 bus2=mv_f0_n2663.1.2.3 phases=3 length=0.134982 units=km linecode=lc_183-3ph enabled=true
New Line.mv_f0_l101 bus1=mv_f0_n2009.1 bus2=mv_f0_n242.1 phases=1 length=0.36455 units=km linecode=lc_183-1ph enabled=true
New Line.mv_f0_l102 bus1=mv_f0_n54.1 bus2=mv_f0_n3861.1 phases=1 length=0.235698 units=km linecode=lc_183-1ph enabled=true
New Line.mv_f0_l103 bus1=mv_f0_n1826.1.2.3 bus2=mv_f0_n3534.1.2.3 phases=3 length=0.043219 units=km linecode=lc_46-3ph enabled=true
New Line.mv_f0_l104 bus1=mv_f0_n2489.1.2.3 bus2=mv_f0_n1785.1.2.3 phases=3 length=0.154722 units=km linecode=lc_46-3ph enabled=true
New Line.mv_f0_l105 bus1=mv_f0_n711.1.2.3 bus2=mv_f0_n4136.1.2.3 phases=3 length=0.048104 units=km linecode=lc_46-3ph enabled=true
New Line.mv_f0_l106 bus1=mv_f0_n1785.1.2.3 bus2=mv_f0_n2941.1.2.3 phases=3 length=0.229654 units=km linecode=lc_46-3ph enabled=true
New Line.mv_f0_l107 bus1=mv_f0_n3263.1.2.3 bus2=mv_f0_n2584.1.2.3 phases=3 length=0.057545 units=km linecode=lc_183-3ph enabled=true
New Line.mv_f0_l108 bus1=mv_f0_n1480.1.2.3 bus2=mv_f0_n1446.1.2.3 phases=3 length=0.304802 units=km linecode=lc_46-3ph enabled=true
New Line.mv_f0_l109 bus1=mv_f0_n2532.1.2.3 bus2=mv_f0_n2533.1.2.3 phases=3 length=0.124564 units=km linecode=lc_2-3ph enabled=true
New Line.mv_f0_l111 bus1=mv_f0_n2748.1 bus2=mv_f0_n1082.1 phases=1 length=0.294697 units=km linecode=lc_46-1ph enabled=true
New Line.mv_f0_l112 bus1=mv_f0_n703.1 bus2=mv_f0_n1607.1 phases=1 length=0.112599 units=km linecode=lc_46-1ph enabled=true
New Line.mv_f0_l113 bus1=mv_f0_n655.1.2.3 bus2=mv_f0_n679.1.2.3 phases=3 length=0.055569 units=km linecode=lc_186-3ph enabled=true
New Line.mv_f0_l114 bus1=mv_f0_n4018.1.2.3 bus2=mv_f0_n3985.1.2.3 phases=3 length=0.17779 units=km linecode=lc_130-3ph enabled=true
New Line.mv_f0_l115 bus1=mv_f0_n2902.1 bus2=mv_f0_n1058.1 phases=1 length=0.000997 units=km linecode=lc_130-1ph enabled=true
New Line.mv_f0_l116 bus1=mv_f0_n2248.1 bus2=mv_f0_n2748.1 phases=1 length=0.324496 units=km linecode=lc_130-1ph enabled=true
New Line.mv_f0_l117 bus1=mv_f0_n873.1 bus2=mv_f0_n3443.1 phases=1 length=0.001001 units=km linecode=lc_130-1ph enabled=true
New Line.mv_f0_l118 bus1=mv_f0_n4008.1.2.3 bus2=mv_f0_n3850.1.2.3 phases=3 length=0.158964 units=km linecode=lc_183-3ph enabled=true
New Line.mv_f0_l119 bus1=mv_f0_n214.1.2.3 bus2=mv_f0_n1495.1.2.3 phases=3 length=0.272911 units=km linecode=lc_46-3ph enabled=true
New Line.mv_f0_l120 bus1=mv_f0_n2698.1.2.3 bus2=mv_f0_n1406.1.2.3 phases=3 length=0.011501 units=km linecode=lc_25-3ph enabled=true
New Line.mv_f0_l121 bus1=mv_f0_n2710.1.2.3 bus2=mv_f0_n4016.1.2.3 phases=3 length=0.078416 units=km linecode=lc_46-3ph enabled=true
New Line.mv_f0_l122 bus1=mv_f0_n3135.1.2.3 bus2=mv_f0_n4008.1.2.3 phases=3 length=0.119042 units=km linecode=lc_183-3ph enabled=true
New Line.mv_f0_l123 bus1=mv_f0_n1495.1.2.3 bus2=mv_f0_n3345.1.2.3 phases=3 length=0.272907 units=km linecode=lc_46-3ph enabled=true
New Line.mv_f0_l124 bus1=mv_f0_n2016.1.2.3 bus2=mv_f0_n1614.1.2.3 phases=3 length=0.186511 units=km linecode=lc_2-3ph enabled=true
New Line.mv_f0_l125 bus1=mv_f0_n1443.1.2.3 bus2=mv_f0_n1757.1.2.3 phases=3 length=0.24576 units=km linecode=lc_46-3ph enabled=true
New Line.mv_f0_l126 bus1=mv_f0_n2845.1.2.3 bus2=mv_f0_n2823.1.2.3 phases=3 length=0.103293 units=km linecode=lc_46-3ph enabled=true
New Line.mv_f0_l127 bus1=mv_f0_n1757.1.2.3 bus2=mv_f0_n1480.1.2.3 phases=3 length=0.298741 units=km linecode=lc_46-3ph enabled=true
New Line.mv_f0_l128 bus1=mv_f0_n126.1 bus2=mv_f0_n25.1 phases=1 length=0.272375 units=km linecode=lc_46-1ph enabled=true
New Line.mv_f0_l129 bus1=mv_f0_n4002.1.2.3 bus2=mv_f0_n4027.1.2.3 phases=3 length=0.153118 units=km linecode=lc_130-3ph enabled=true
New Line.mv_f0_l130 bus1=mv_f0_n2845.1.2.3 bus2=mv_f0_n614.1.2.3 phases=3 length=0.17329 units=km linecode=lc_46-3ph enabled=true
New Line.mv_f0_l131 bus1=mv_f0_n1520.1.2.3 bus2=mv_f0_n3301.1.2.3 phases=3 length=0.312351 units=km linecode=lc_46-3ph enabled=true
New Line.mv_f0_l132 bus1=mv_f0_n4027.1.2.3 bus2=mv_f0_n2497.1.2.3 phases=3 length=0.128212 units=km linecode=lc_130-3ph enabled=true
New Line.mv_f0_l133 bus1=mv_f0_n2224.1 bus2=mv_f0_n2760.1 phases=1 length=0.372494 units=km linecode=lc_130-1ph enabled=true
New Line.mv_f0_l134 bus1=mv_f0_n3301.1.2.3 bus2=mv_f0_n2212.1.2.3 phases=3 length=0.190985 units=km linecode=lc_46-3ph enabled=true
New Line.mv_f0_l135 bus1=mv_f0_n3178.1.2.3 bus2=mv_f0_n590.1.2.3 phases=3 length=0.103093 units=km linecode=lc_183-3ph enabled=true
New Line.mv_f0_l136 bus1=mv_f0_n2135.1.2.3 bus2=mv_f0_n2114.1.2.3 phases=3 length=0.135142 units=km linecode=lc_183-3ph enabled=true
New Line.mv_f0_l137 bus1=mv_f0_n3346.1.2.3 bus2=mv_f0_n1556.1.2.3 phases=3 length=0.247982 units=km linecode=lc_46-3ph enabled=true
New Line.mv_f0_l138 bus1=mv_f0_n3698.1.2.3 bus2=mv_f0_n1154.1.2.3 phases=3 length=0.247564 units=km linecode=lc_119-3ph enabled=true
New Line.mv_f0_l139 bus1=mv_f0_n1875.1.2.3 bus2=mv_f0_n236.1.2.3 phases=3 length=0.173056 units=km linecode=lc_46-3ph enabled=true
New Line.mv_f0_l140 bus1=mv_f0_n159.1.2.3 bus2=mv_f0_n1386.1.2.3 phases=3 length=0.253703 units=km linecode=lc_44-3ph enabled=true
New Line.mv_f0_l141 bus1=mv_f0_n758.1 bus2=mv_f0_n2589.1 phases=1 length=0.384331 units=km linecode=lc_44-1ph enabled=true
New Line.mv_f0_l142 bus1=mv_f0_n2894.1.2.3 bus2=mv_f0_n2861.1.2.3 phases=3 length=0.334655 units=km linecode=lc_44-3ph enabled=true
New Line.mv_f0_l143 bus1=mv_f0_n779.1.2.3 bus2=mv_f0_n27.1.2.3 phases=3 length=0.056785 units=km linecode=lc_164-3ph enabled=true
New Line.mv_f0_l144 bus1=mv_f0_n27.1.2.3 bus2=mv_f0_n780.1.2.3 phases=3 length=0.037248 units=km linecode=lc_164-3ph enabled=true
New Line.mv_f0_l145 bus1=mv_f0_n3591.1 bus2=mv_f0_n2862.1 phases=1 length=0.346225 units=km linecode=lc_164-1ph enabled=true
New Line.mv_f0_l146 bus1=mv_f0_n4044.1.2.3 bus2=mv_f0_n4018.1.2.3 phases=3 length=0.183159 units=km linecode=lc_130-3ph enabled=true
New Line.mv_f0_l147 bus1=mv_f0_n4060.1.2.3 bus2=mv_f0_n334.1.2.3 phases=3 length=0.000999 units=km linecode=lc_44-3ph enabled=true
New Line.mv_f0_l148 bus1=mv_f0_n1058.1 bus2=mv_f0_n2935.1 phases=1 length=0.334245 units=km linecode=lc_44-1ph enabled=true
New Line.mv_f0_l149 bus1=mv_f0_n821.1.2.3 bus2=mv_f0_n818.1.2.3 phases=3 length=0.299869 units=km linecode=lc_46-3ph enabled=true
New Line.mv_f0_l150 bus1=mv_f0_n3193.1.2.3 bus2=mv_f0_n3178.1.2.3 phases=3 length=0.101383 units=km linecode=lc_183-3ph enabled=true
New Line.mv_f0_l151 bus1=mv_f0_n1006.1.2.3 bus2=mv_f0_n1400.1.2.3 phases=3 length=0.064952 units=km linecode=lc_168-3ph enabled=true
New Line.mv_f0_l152 bus1=mv_f0_n692.1.2.3 bus2=mv_f0_n668.1.2.3 phases=3 length=0.050939 units=km linecode=lc_186-3ph enabled=true
New Line.mv_f0_l153 bus1=mv_f0_n888.1 bus2=mv_f0_n3354.1 phases=1 length=0.384962 units=km linecode=lc_186-1ph enabled=true
New Line.mv_f0_l154 bus1=mv_f0_n2785.1 bus2=mv_f0_n3515.1 phases=1 length=0.056201 units=km linecode=lc_186-1ph enabled=true
New Line.mv_f0_l155 bus1=mv_f0_n3196.1 bus2=mv_f0_n3605.1 phases=1 length=0.369949 units=km linecode=lc_186-1ph enabled=true
New Line.mv_f0_l156 bus1=mv_f0_n2549.1.2.3 bus2=mv_f0_n2904.1.2.3 phases=3 length=0.216214 units=km linecode=lc_44-3ph enabled=true
New Line.mv_f0_l157 bus1=mv_f0_n3718.1.2.3 bus2=mv_f0_n3427.1.2.3 phases=3 length=0.119362 units=km linecode=lc_186-3ph enabled=true
New Line.mv_f0_l158 bus1=mv_f0_n3794.1 bus2=mv_f0_n928.1 phases=1 length=0.191965 units=km linecode=lc_186-1ph enabled=true
New Line.mv_f0_l159 bus1=mv_f0_n272.1.2.3 bus2=mv_f0_n1236.1.2.3 phases=3 length=0.191797 units=km linecode=lc_46-3ph enabled=true
New Line.mv_f0_l160 bus1=mv_f0_n2088.1.2.3 bus2=mv_f0_n3263.1.2.3 phases=3 length=0.099735 units=km linecode=lc_183-3ph enabled=true
New Line.mv_f0_l161 bus1=mv_f0_n3427.1.2.3 bus2=mv_f0_n2203.1.2.3 phases=3 length=0.137125 units=km linecode=lc_186-3ph enabled=true
New Line.mv_f0_l162 bus1=mv_f0_n4053.1.2.3 bus2=mv_f0_n4044.1.2.3 phases=3 length=0.188502 units=km linecode=lc_130-3ph enabled=true
New Line.mv_f0_l163 bus1=mv_f0_n1412.1.2.3 bus2=mv_f0_n4154.1.2.3 phases=3 length=0.121783 units=km linecode=lc_168-3ph enabled=true
New Line.mv_f0_l164 bus1=mv_f0_n2632.1.2.3 bus2=mv_f0_n4115.1.2.3 phases=3 length=0.221291 units=km linecode=lc_84-3ph enabled=true
New Line.mv_f0_l165 bus1=mv_f0_n1939.1.2.3 bus2=mv_f0_n293.1.2.3 phases=3 length=0.236079 units=km linecode=lc_46-3ph enabled=true
New Line.mv_f0_l166 bus1=mv_f0_n3208.1.2.3 bus2=mv_f0_n3193.1.2.3 phases=3 length=0.099933 units=km linecode=lc_183-3ph enabled=true
New Line.mv_f0_l167 bus1=mv_f0_n217.1.2.3 bus2=mv_f0_n231.1.2.3 phases=3 length=0.359415 units=km linecode=lc_46-3ph enabled=true
New Line.mv_f0_l168 bus1=mv_f0_n2578.1.2.3 bus2=mv_f0_n2603.1.2.3 phases=3 length=0.052996 units=km linecode=lc_168-3ph enabled=true
New Line.mv_f0_l169 bus1=mv_f0_n3850.1.2.3 bus2=mv_f0_n3208.1.2.3 phases=3 length=0.096599 units=km linecode=lc_183-3ph enabled=true
New Line.mv_f0_l170 bus1=mv_f0_n2798.1 bus2=mv_f0_n2785.1 phases=1 length=0.3069 units=km linecode=lc_183-1ph enabled=true
New Line.mv_f0_l171 bus1=mv_f0_n1.1.2.3 bus2=mv_f0_n1787.1.2.3 phases=3 length=0.159382 units=km linecode=lc_46-3ph enabled=true
New Line.mv_f0_l172 bus1=mv_f0_n1678.1.2.3 bus2=mv_f0_n211.1.2.3 phases=3 length=0.079902 units=km linecode=lc_168-3ph enabled=true
New Line.mv_f0_l173 bus1=mv_f0_n2760.1 bus2=mv_f0_n2798.1 phases=1 length=0.306895 units=km linecode=lc_168-1ph enabled=true
New Line.mv_f0_l174 bus1=mv_f0_n1787.1.2.3 bus2=mv_f0_n1549.1.2.3 phases=3 length=0.29246 units=km linecode=lc_46-3ph enabled=true
New Line.mv_f0_l175 bus1=mv_f0_n899.1 bus2=mv_f0_n1218.1 phases=1 length=0.310896 units=km linecode=lc_46-1ph enabled=true
New Line.mv_f0_l176 bus1=mv_f0_n2497.1.2.3 bus2=mv_f0_n4059.1.2.3 phases=3 length=0.170663 units=km linecode=lc_130-3ph enabled=true
New Line.mv_f0_l177 bus1=mv_f0_n3405.1.2.3 bus2=mv_f0_n1678.1.2.3 phases=3 length=0.429879 units=km linecode=lc_168-3ph enabled=true
New Line.mv_f0_l178 bus1=mv_f0_n3613.1 bus2=mv_f0_n3591.1 phases=1 length=0.487637 units=km linecode=lc_168-1ph enabled=true
New Line.mv_f0_l179 bus1=mv_f0_n4141.1 bus2=mv_f0_n1322.1 phases=1 length=0.086659 units=km linecode=lc_86-1ph enabled=true
New Line.mv_f0_l180 bus1=mv_f0_n29.1.2.3 bus2=mv_f0_n1846.1.2.3 phases=3 length=0.028526 units=km linecode=lc_216-3ph enabled=true
New Line.mv_f0_l181 bus1=mv_f0_n2900.1.2.3 bus2=mv_f0_n3632.1.2.3 phases=3 length=0.120242 units=km linecode=lc_183-3ph enabled=true
New Line.mv_f0_l182 bus1=mv_f0_n3341.1.2.3 bus2=mv_f0_n1584.1.2.3 phases=3 length=0.050934 units=km linecode=lc_186-3ph enabled=true
New Line.mv_f0_l183 bus1=mv_f0_n1400.1.2.3 bus2=mv_f0_n1422.1.2.3 phases=3 length=0.061224 units=km linecode=lc_168-3ph enabled=true
New Line.mv_f0_l184 bus1=mv_f0_n1734.1 bus2=mv_f0_n602.1 phases=1 length=0.33732 units=km linecode=lc_168-1ph enabled=true
New Line.mv_f0_l185 bus1=mv_f0_n1846.1.2.3 bus2=mv_f0_n1659.1.2.3 phases=3 length=0.019255 units=km linecode=lc_216-3ph enabled=true
New Line.mv_f0_l186 bus1=mv_f0_n2904.1.2.3 bus2=mv_f0_n2917.1.2.3 phases=3 length=0.17982 units=km linecode=lc_44-3ph enabled=true
New Line.mv_f0_l188 bus1=mv_f0_n602.1 bus2=mv_f0_n3236.1 phases=1 length=0.000998 units=km linecode=lc_93-1ph enabled=true
New Line.mv_f0_l189 bus1=mv_f0_n3600.1 bus2=mv_f0_n3628.1 phases=1 length=0.353535 units=km linecode=lc_93-1ph enabled=true
New Line.mv_f0_l190 bus1=mv_f0_n3254.1.2.3 bus2=mv_f0_n793.1.2.3 phases=3 length=0.260428 units=km linecode=lc_119-3ph enabled=true
New Line.mv_f0_l191 bus1=mv_f0_n1803.1.2.3 bus2=mv_f0_n1501.1.2.3 phases=3 length=0.223424 units=km linecode=lc_46-3ph enabled=true
New Line.mv_f0_l192 bus1=mv_f0_n2050.1 bus2=mv_f0_n3652.1 phases=1 length=0.307765 units=km linecode=lc_46-1ph enabled=true
New Line.mv_f0_l193 bus1=mv_f0_n1583.1.2.3 bus2=mv_f0_n3347.1.2.3 phases=3 length=0.05424 units=km linecode=lc_186-3ph enabled=true
New Line.mv_f0_l194 bus1=mv_f0_n729.1 bus2=mv_f0_n2958.1 phases=1 length=0.308791 units=km linecode=lc_186-1ph enabled=true
New Line.mv_f0_l195 bus1=mv_f0_n3456.1.2.3 bus2=mv_f0_n3508.1.2.3 phases=3 length=0.20244 units=km linecode=lc_119-3ph enabled=true
New Line.mv_f0_l196 bus1=mv_f0_n3628.1 bus2=mv_f0_n3613.1 phases=1 length=0.305988 units=km linecode=lc_119-1ph enabled=true
New Line.mv_f0_l197 bus1=mv_f0_n3347.1.2.3 bus2=mv_f0_n3341.1.2.3 phases=3 length=0.057608 units=km linecode=lc_186-3ph enabled=true
New Line.mv_f0_l198 bus1=mv_f0_n4072.1.2.3 bus2=mv_f0_n4053.1.2.3 phases=3 length=0.164399 units=km linecode=lc_130-3ph enabled=true
New Line.mv_f0_l199 bus1=mv_f0_n2930.1.2.3 bus2=mv_f0_n159.1.2.3 phases=3 length=0.373894 units=km linecode=lc_44-3ph enabled=true
New Line.mv_f0_l200 bus1=mv_f0_n387.1.2.3 bus2=mv_f0_n391.1.2.3 phases=3 length=0.159144 units=km linecode=lc_44-3ph enabled=true
New Line.mv_f0_l201 bus1=mv_f0_n1422.1.2.3 bus2=mv_f0_n1437.1.2.3 phases=3 length=0.098429 units=km linecode=lc_168-3ph enabled=true
New Line.mv_f0_l202 bus1=mv_f0_n2917.1.2.3 bus2=mv_f0_n2930.1.2.3 phases=3 length=0.365735 units=km linecode=lc_44-3ph enabled=true
New Line.mv_f0_l203 bus1=mv_f0_n826.1.2.3 bus2=mv_f0_n566.1.2.3 phases=3 length=0.122474 units=km linecode=lc_186-3ph enabled=true
New Line.mv_f0_l204 bus1=mv_f0_n318.1.2.3 bus2=mv_f0_n1558.1.2.3 phases=3 length=0.304776 units=km linecode=lc_44-3ph enabled=true
New Line.mv_f0_l205 bus1=mv_f0_n1558.1.2.3 bus2=mv_f0_n1842.1.2.3 phases=3 length=0.304772 units=km linecode=lc_44-3ph enabled=true
New Line.mv_f0_l206 bus1=mv_f0_n1815.1.2.3 bus2=mv_f0_n1803.1.2.3 phases=3 length=0.285047 units=km linecode=lc_46-3ph enabled=true
New Line.mv_f0_l207 bus1=mv_f0_n4059.1.2.3 bus2=mv_f0_n4082.1.2.3 phases=3 length=0.154494 units=km linecode=lc_130-3ph enabled=true
New Line.mv_f0_l208 bus1=mv_f0_n4103.1.2.3 bus2=mv_f0_n3699.1.2.3 phases=3 length=0.009236 units=km linecode=lc_46-3ph enabled=true
New Line.mv_f0_l209 bus1=mv_f0_n1842.1.2.3 bus2=mv_f0_n982.1.2.3 phases=3 length=0.308844 units=km linecode=lc_44-3ph enabled=true
...
